data_Rb8 Li4 Tl4 F24
_pd_phase_name Rb8 Li4 Tl4 F24
_cell_length_a  8.6912960000
_cell_length_b  8.6912960000
_cell_length_c  8.6912960000
_cell_angle_alpha  90.0000000000
_cell_angle_beta  90.0000000000
_cell_angle_gamma  90.0000000000
_symmetry_space_group_name_H-M  'P1'
_symmetry_Int_Tables_Number  1
loop_
_symmetry_equiv_pos_site_id
_symmetry_equiv_pos_as_xyz_
  1  x,y,z
loop_
 _atom_site_label
 _atom_site_occupancy
 _atom_site_fract_x
 _atom_site_fract_y
 _atom_site_fract_z
 _atom_site_thermal_displace_type
 _atom_site_B_iso_or_equiv
 _atom_site_type_symbol
Rb1 1.0 0.2500000000 0.7500000000 0.7500000000  Biso 1.0 Rb
Rb2 1.0 0.2500000000 0.2500000000 0.7500000000  Biso 1.0 Rb
Rb3 1.0 0.2500000000 0.2500000000 0.2500000000  Biso 1.0 Rb
Rb4 1.0 0.2500000000 0.7500000000 0.2500000000  Biso 1.0 Rb
Rb5 1.0 0.7500000000 0.7500000000 0.2500000000  Biso 1.0 Rb
Rb6 1.0 0.7500000000 0.2500000000 0.2500000000  Biso 1.0 Rb
Rb7 1.0 0.7500000000 0.2500000000 0.7500000000  Biso 1.0 Rb
Rb8 1.0 0.7500000000 0.7500000000 0.7500000000  Biso 1.0 Rb
Li9 1.0 0.5000000000 0.0000000000 0.0000000000  Biso 1.0 Li
Li10 1.0 0.5000000000 0.5000000000 0.5000000000  Biso 1.0 Li
Li11 1.0 0.0000000000 0.0000000000 0.5000000000  Biso 1.0 Li
Li12 1.0 0.0000000000 0.5000000000 0.0000000000  Biso 1.0 Li
Tl13 1.0 0.0000000000 0.0000000000 0.0000000000  Biso 1.0 Tl
Tl14 1.0 0.0000000000 0.5000000000 0.5000000000  Biso 1.0 Tl
Tl15 1.0 0.5000000000 0.0000000000 0.5000000000  Biso 1.0 Tl
Tl16 1.0 0.5000000000 0.5000000000 0.0000000000  Biso 1.0 Tl
F17 1.0 0.5000000000 0.0000000000 0.7537150000  Biso 1.0 F
F18 1.0 0.7462850000 0.0000000000 0.0000000000  Biso 1.0 F
F19 1.0 0.0000000000 0.0000000000 0.7462850000  Biso 1.0 F
F20 1.0 0.5000000000 0.7537150000 0.0000000000  Biso 1.0 F
F21 1.0 0.5000000000 0.2462850000 0.0000000000  Biso 1.0 F
F22 1.0 0.2537150000 0.0000000000 0.0000000000  Biso 1.0 F
F23 1.0 0.5000000000 0.5000000000 0.2537150000  Biso 1.0 F
F24 1.0 0.7462850000 0.5000000000 0.5000000000  Biso 1.0 F
F25 1.0 0.0000000000 0.5000000000 0.2462850000  Biso 1.0 F
F26 1.0 0.5000000000 0.2537150000 0.5000000000  Biso 1.0 F
F27 1.0 0.5000000000 0.7462850000 0.5000000000  Biso 1.0 F
F28 1.0 0.2537150000 0.5000000000 0.5000000000  Biso 1.0 F
F29 1.0 0.0000000000 0.0000000000 0.2537150000  Biso 1.0 F
F30 1.0 0.2462850000 0.0000000000 0.5000000000  Biso 1.0 F
F31 1.0 0.5000000000 0.0000000000 0.2462850000  Biso 1.0 F
F32 1.0 0.0000000000 0.7537150000 0.5000000000  Biso 1.0 F
F33 1.0 0.0000000000 0.2462850000 0.5000000000  Biso 1.0 F
F34 1.0 0.7537150000 0.0000000000 0.5000000000  Biso 1.0 F
F35 1.0 0.0000000000 0.5000000000 0.7537150000  Biso 1.0 F
F36 1.0 0.2462850000 0.5000000000 0.0000000000  Biso 1.0 F
F37 1.0 0.5000000000 0.5000000000 0.7462850000  Biso 1.0 F
F38 1.0 0.0000000000 0.2537150000 0.0000000000  Biso 1.0 F
F39 1.0 0.0000000000 0.7462850000 0.0000000000  Biso 1.0 F
F40 1.0 0.7537150000 0.5000000000 0.0000000000  Biso 1.0 F
